MODEL 1
REMARK VINA RESULT:    -7.446      0.000      0.000
REMARK INTER + INTRA:         -11.480
REMARK INTER:                 -12.594
REMARK INTRA:                   1.114
REMARK UNBOUND:                -0.987
REMARK  Name = 
REMARK  7 active torsions:
REMARK  status: ('A' for Active; 'I' for Inactive)
REMARK    1  A    between atoms: _4  and  _5
REMARK    2  A    between atoms: _8  and  _9
REMARK    3  A    between atoms: _9  and  _10
REMARK    4  A    between atoms: _10  and  _11
REMARK    5  A    between atoms: _10  and  _21
REMARK    6  A    between atoms: _11  and  _12
REMARK    7  A    between atoms: _12  and  _15
ROOT
ATOM     21  C16 UNL     1      47.096   8.677   0.518  0.00  0.00     0.000 A
ATOM     22  N2  UNL     1      48.503   8.841   0.025  0.00  0.00     0.000 NA
ATOM     23  C17 UNL     1      49.401   8.026   0.910  0.00  0.00     0.000 A
ATOM     24  C18 UNL     1      50.884   7.805   0.903  0.00  0.00     0.000 A
ATOM     25  C19 UNL     1      51.515   6.917   1.935  0.00  0.00     0.000 A
ATOM     26  C20 UNL     1      50.662   6.251   2.973  0.00  0.00     0.000 A
ATOM     27  C21 UNL     1      49.178   6.472   2.980  0.00  0.00     0.000 A
ATOM     28  C22 UNL     1      48.548   7.360   1.948  0.00  0.00     0.000 A
ATOM     29  N3  UNL     1      47.123   7.762   1.706  0.00  0.00     0.000 N
ENDROOT
BRANCH 21 10
ATOM     10  C9  UNL     1      45.876   9.317  -0.074  0.00  0.00     0.000 C
BRANCH 10 9
ATOM      9  C8  UNL     1      44.907  10.046   0.809  0.00  0.00     0.000 C
BRANCH 9 8
ATOM      5  C4  UNL     1      46.014  14.052   2.537  0.00  0.00     0.000 A
ATOM      6  C5  UNL     1      46.726  12.814   2.995  0.00  0.00     0.000 A
ATOM      7  C6  UNL     1      46.358  11.479   2.420  0.00  0.00     0.000 A
ATOM      8  C7  UNL     1      45.276  11.381   1.385  0.00  0.00     0.000 A
ATOM     30  C23 UNL     1      44.563  12.619   0.926  0.00  0.00     0.000 A
ATOM     31  C24 UNL     1      44.932  13.954   1.502  0.00  0.00     0.000 A
BRANCH 5 4
ATOM      1  O1  UNL     1      48.540  17.848   5.200  0.00  0.00     0.000 OA
ATOM      2  C1  UNL     1      47.543  17.132   4.337  0.00  0.00     0.000 C
ATOM      3  C2  UNL     1      47.559  15.671   3.998  0.00  0.00     0.000 C
ATOM      4  C3  UNL     1      46.382  15.387   3.112  0.00  0.00     0.000 C
ATOM     32  S2  UNL     1      45.639  16.673   2.903  0.00  0.00     0.000 S
ATOM     33  O4  UNL     1      44.705  17.782   2.520  0.00  0.00     0.000 OA
ATOM     34  O5  UNL     1      44.726  15.827   2.067  0.00  0.00     0.000 OA
ATOM     35  N4  UNL     1      46.357  17.752   3.660  0.00  0.00     0.000 N
ENDBRANCH 5 4
ENDBRANCH 9 8
ENDBRANCH 10 9
BRANCH 10 11
ATOM     11  N1  UNL     1      45.623   9.228  -1.550  0.00  0.00     0.000 N
BRANCH 11 12
ATOM     12  S1  UNL     1      44.259   9.530  -2.097  0.00  0.00     0.000 S
ATOM     13  O2  UNL     1      44.701  10.924  -2.429  0.00  0.00     0.000 OA
ATOM     14  O3  UNL     1      43.818   8.135  -1.766  0.00  0.00     0.000 OA
BRANCH 12 15
ATOM     15  C10 UNL     1      42.896   9.831  -2.645  0.00  0.00     0.000 A
ATOM     16  C11 UNL     1      41.769   8.866  -2.424  0.00  0.00     0.000 A
ATOM     17  C12 UNL     1      40.405   9.167  -2.971  0.00  0.00     0.000 A
ATOM     18  C13 UNL     1      40.168  10.434  -3.739  0.00  0.00     0.000 A
ATOM     19  C14 UNL     1      41.295  11.399  -3.959  0.00  0.00     0.000 A
ATOM     20  C15 UNL     1      42.659  11.098  -3.412  0.00  0.00     0.000 A
ENDBRANCH 12 15
ENDBRANCH 11 12
ENDBRANCH 10 11
ENDBRANCH 21 10
TORSDOF 7
ENDMDL
