REMARK  Name = 
REMARK  11 active torsions:
REMARK  status: ('A' for Active; 'I' for Inactive)
REMARK    1  A    between atoms: _4  and  _5
REMARK    2  A    between atoms: _8  and  _9
REMARK    3  A    between atoms: _9  and  _10
REMARK    4  A    between atoms: _10  and  _11
REMARK    5  A    between atoms: _10  and  _27
REMARK    6  A    between atoms: _11  and  _12
REMARK    7  A    between atoms: _12  and  _15
REMARK    8  A    between atoms: _18  and  _19
REMARK    9  A    between atoms: _36  and  _37
REMARK   10  A    between atoms: _37  and  _38
REMARK   11  A    between atoms: _38  and  _40
ROOT
ATOM      1  O1  UNL     1       4.674  -4.832   0.000  0.00  0.00     0.000 OA
ATOM      2  C1  UNL     1       3.304  -4.222   0.000  0.00  0.00     0.000 C
ATOM      3  C2  UNL     1       2.992  -2.755   0.000  0.00  0.00     0.000 C
ATOM      4  C3  UNL     1       1.500  -2.598   0.000  0.00  0.00     0.000 C
ATOM     35  N2  UNL     1       0.890  -3.968   0.000  0.00  0.00     0.000 N
ATOM     36  C30 UNL     1       2.005  -4.972   0.000  0.00  0.00     0.000 C
ENDROOT
BRANCH 4 5
ATOM      5  C4  UNL     1       0.750  -1.299   0.000  0.00  0.00     0.000 A
ATOM      6  C5  UNL     1       1.500   0.000   0.000  0.00  0.00     0.000 A
ATOM      7  C6  UNL     1       0.750   1.299   0.000  0.00  0.00     0.000 A
ATOM      8  C7  UNL     1      -0.750   1.299   0.000  0.00  0.00     0.000 A
ATOM     33  C28 UNL     1      -1.500   0.000   0.000  0.00  0.00     0.000 A
ATOM     34  C29 UNL     1      -0.750  -1.299   0.000  0.00  0.00     0.000 A
BRANCH 8 9
ATOM      9  C8  UNL     1      -1.500   2.598   0.000  0.00  0.00     0.000 C
BRANCH 9 10
ATOM     10  C9  UNL     1      -0.750   3.897   0.000  0.00  0.00     0.000 C
BRANCH 10 11
ATOM     11  N1  UNL     1       0.750   3.897   0.000  0.00  0.00     0.000 N
BRANCH 11 12
ATOM     12  S1  UNL     1       1.500   5.196   0.000  0.00  0.00     0.000 S
ATOM     13  O2  UNL     1       0.201   5.946   0.000  0.00  0.00     0.000 OA
ATOM     14  O3  UNL     1       2.799   4.446   0.000  0.00  0.00     0.000 OA
BRANCH 12 15
ATOM     15  C10 UNL     1       2.250   6.495   0.000  0.00  0.00     0.000 A
ATOM     16  C11 UNL     1       3.750   6.495   0.000  0.00  0.00     0.000 A
ATOM     17  C12 UNL     1       4.500   7.794   0.000  0.00  0.00     0.000 A
ATOM     18  C13 UNL     1       3.750   9.093   0.000  0.00  0.00     0.000 A
ATOM     25  C20 UNL     1       2.250   9.093   0.000  0.00  0.00     0.000 A
ATOM     26  C21 UNL     1       1.500   7.794   0.000  0.00  0.00     0.000 A
BRANCH 18 19
ATOM     19  C14 UNL     1       4.500  10.392   0.000  0.00  0.00     0.000 A
ATOM     20  C15 UNL     1       6.000  10.392   0.000  0.00  0.00     0.000 A
ATOM     21  C16 UNL     1       6.750  11.691   0.000  0.00  0.00     0.000 A
ATOM     22  C17 UNL     1       6.000  12.990   0.000  0.00  0.00     0.000 A
ATOM     23  C18 UNL     1       4.500  12.990   0.000  0.00  0.00     0.000 A
ATOM     24  C19 UNL     1       3.750  11.691   0.000  0.00  0.00     0.000 A
ENDBRANCH 18 19
ENDBRANCH 12 15
ENDBRANCH 11 12
ENDBRANCH 10 11
BRANCH 10 27
ATOM     27  C22 UNL     1      -1.500   5.196   0.000  0.00  0.00     0.000 A
ATOM     28  C23 UNL     1      -0.750   6.495   0.000  0.00  0.00     0.000 A
ATOM     29  C24 UNL     1      -1.500   7.794   0.000  0.00  0.00     0.000 A
ATOM     30  C25 UNL     1      -3.000   7.794   0.000  0.00  0.00     0.000 A
ATOM     31  C26 UNL     1      -3.750   6.495   0.000  0.00  0.00     0.000 A
ATOM     32  C27 UNL     1      -3.000   5.196   0.000  0.00  0.00     0.000 A
ENDBRANCH 10 27
ENDBRANCH 9 10
ENDBRANCH 8 9
ENDBRANCH 4 5
BRANCH 36 37
ATOM     37  C31 UNL     1       1.848  -6.464   0.000  0.00  0.00     0.000 C
BRANCH 37 38
ATOM     38  C32 UNL     1       0.477  -7.074   0.000  0.00  0.00     0.000 C
ATOM     39  O4  UNL     1      -0.736  -6.192   0.000  0.00  0.00     0.000 OA
BRANCH 38 40
ATOM     40  C33 UNL     1       0.321  -8.566   0.000  0.00  0.00     0.000 C
ATOM     41  O5  UNL     1      -1.050  -9.176   0.000  0.00  0.00     0.000 OA
ENDBRANCH 38 40
ENDBRANCH 37 38
ENDBRANCH 36 37
TORSDOF 11