REMARK  Name = 
REMARK  7 active torsions:
REMARK  status: ('A' for Active; 'I' for Inactive)
REMARK    1  A    between atoms: _4  and  _2
REMARK    2  A    between atoms: _4  and  _5
REMARK    3  A    between atoms: _6  and  _7
REMARK    4  A    between atoms: _13  and  _14
REMARK    5  A    between atoms: _14  and  _15
REMARK    6  A    between atoms: _15  and  _18
REMARK    7  A    between atoms: _24  and  _25
ROOT
ATOM      5  N1  UNL     1      -0.750  -3.897   0.000  0.00  0.00     0.000 N
ATOM      6  C3  UNL     1       0.750  -3.897   0.000  0.00  0.00     0.000 A
ATOM     10  C5  UNL     1       1.500  -2.598   0.000  0.00  0.00     0.000 A
ATOM     11  C6  UNL     1       0.750  -1.299   0.000  0.00  0.00     0.000 A
ATOM     12  C7  UNL     1       1.500   0.000   0.000  0.00  0.00     0.000 A
ATOM     13  C8  UNL     1       0.750   1.299   0.000  0.00  0.00     0.000 A
ATOM     23  C13 UNL     1      -0.750   1.299   0.000  0.00  0.00     0.000 A
ATOM     24  C14 UNL     1      -1.500   0.000   0.000  0.00  0.00     0.000 A
ATOM     32  C21 UNL     1      -0.750  -1.299   0.000  0.00  0.00     0.000 A
ATOM     33  C22 UNL     1      -1.500  -2.598   0.000  0.00  0.00     0.000 A
ATOM     34  O8  UNL     1      -3.000  -2.598   0.000  0.00  0.00     0.000 OA
ENDROOT
BRANCH 24 25
ATOM     25  C15 UNL     1      -3.000   0.000   0.000  0.00  0.00     0.000 A
ATOM     26  C16 UNL     1      -3.750   1.299   0.000  0.00  0.00     0.000 A
ATOM     27  C17 UNL     1      -5.250   1.299   0.000  0.00  0.00     0.000 A
ATOM     28  C18 UNL     1      -6.000   0.000   0.000  0.00  0.00     0.000 A
ATOM     29  O7  UNL     1      -7.500   0.000   0.000  0.00  0.00     0.000 OA
ATOM     30  C19 UNL     1      -5.250  -1.299   0.000  0.00  0.00     0.000 A
ATOM     31  C20 UNL     1      -3.750  -1.299   0.000  0.00  0.00     0.000 A
ENDBRANCH 24 25
BRANCH 6 7
ATOM      7  C4  UNL     1       1.500  -5.196   0.000  0.00  0.00     0.000 C
ATOM      8  O3  UNL     1       3.000  -5.196   0.000  0.00  0.00     0.000 OA
ATOM      9  O4  UNL     1       0.750  -6.495   0.000  0.00  0.00     0.000 OA
ENDBRANCH 6 7
BRANCH 5 4
ATOM      4  C2  UNL     1      -1.500  -5.196   0.000  0.00  0.00     0.000 C
BRANCH 4 2
ATOM      1  O1  UNL     1      -3.750  -3.897   0.000  0.00  0.00     0.000 OA
ATOM      2  C1  UNL     1      -3.000  -5.196   0.000  0.00  0.00     0.000 C
ATOM      3  O2  UNL     1      -3.750  -6.495   0.000  0.00  0.00     0.000 OA
ENDBRANCH 4 2
ENDBRANCH 5 4
BRANCH 13 14
ATOM     14  N2  UNL     1       1.500   2.598   0.000  0.00  0.00     0.000 N
BRANCH 14 15
ATOM     15  S1  UNL     1       3.000   2.598   0.000  0.00  0.00     0.000 S
ATOM     16  O5  UNL     1       3.000   1.098   0.000  0.00  0.00     0.000 OA
ATOM     17  O6  UNL     1       3.000   4.098   0.000  0.00  0.00     0.000 OA
BRANCH 15 18
ATOM     18  C9  UNL     1       4.500   2.598   0.000  0.00  0.00     0.000 A
ATOM     19  C10 UNL     1       5.382   3.812   0.000  0.00  0.00     0.000 A
ATOM     20  C11 UNL     1       6.808   3.348   0.000  0.00  0.00     0.000 A
ATOM     21  C12 UNL     1       6.808   1.848   0.000  0.00  0.00     0.000 A
ATOM     22  S2  UNL     1       5.382   1.385   0.000  0.00  0.00     0.000 S
ENDBRANCH 15 18
ENDBRANCH 14 15
ENDBRANCH 13 14
TORSDOF 7