REMARK  Name = 
REMARK  7 active torsions:
REMARK  status: ('A' for Active; 'I' for Inactive)
REMARK    1  A    between atoms: _4  and  _5
REMARK    2  A    between atoms: _8  and  _9
REMARK    3  A    between atoms: _9  and  _10
REMARK    4  A    between atoms: _10  and  _11
REMARK    5  A    between atoms: _10  and  _21
REMARK    6  A    between atoms: _11  and  _12
REMARK    7  A    between atoms: _12  and  _15
ROOT
ATOM     21  C16 UNL     1       0.000  -3.607   0.000  0.00  0.00     0.000 A
ATOM     22  N2  UNL     1       1.214  -2.726   0.000  0.00  0.00     0.000 NA
ATOM     23  C17 UNL     1       0.750  -1.299   0.000  0.00  0.00     0.000 A
ATOM     24  C18 UNL     1       1.500   0.000   0.000  0.00  0.00     0.000 A
ATOM     25  C19 UNL     1       0.750   1.299   0.000  0.00  0.00     0.000 A
ATOM     26  C20 UNL     1      -0.750   1.299   0.000  0.00  0.00     0.000 A
ATOM     27  C21 UNL     1      -1.500   0.000   0.000  0.00  0.00     0.000 A
ATOM     28  C22 UNL     1      -0.750  -1.299   0.000  0.00  0.00     0.000 A
ATOM     29  N3  UNL     1      -1.214  -2.726   0.000  0.00  0.00     0.000 N
ENDROOT
BRANCH 21 10
ATOM     10  C9  UNL     1       0.000  -5.107   0.000  0.00  0.00     0.000 C
BRANCH 10 9
ATOM      9  C8  UNL     1      -1.299  -5.857   0.000  0.00  0.00     0.000 C
BRANCH 9 8
ATOM      5  C4  UNL     1      -1.299 -10.357   0.000  0.00  0.00     0.000 A
ATOM      6  C5  UNL     1       0.000  -9.607   0.000  0.00  0.00     0.000 A
ATOM      7  C6  UNL     1       0.000  -8.107   0.000  0.00  0.00     0.000 A
ATOM      8  C7  UNL     1      -1.299  -7.357   0.000  0.00  0.00     0.000 A
ATOM     30  C23 UNL     1      -2.598  -8.107   0.000  0.00  0.00     0.000 A
ATOM     31  C24 UNL     1      -2.598  -9.607   0.000  0.00  0.00     0.000 A
BRANCH 5 4
ATOM      1  O1  UNL     1       0.333 -15.379   0.000  0.00  0.00     0.000 OA
ATOM      2  C1  UNL     1      -0.549 -14.166   0.000  0.00  0.00     0.000 C
ATOM      3  C2  UNL     1      -0.086 -12.739   0.000  0.00  0.00     0.000 C
ATOM      4  C3  UNL     1      -1.299 -11.857   0.000  0.00  0.00     0.000 C
ATOM     32  S2  UNL     1      -2.513 -12.739   0.000  0.00  0.00     0.000 S
ATOM     33  O4  UNL     1      -3.883 -13.349   0.000  0.00  0.00     0.000 OA
ATOM     34  O5  UNL     1      -3.263 -11.440   0.000  0.00  0.00     0.000 OA
ATOM     35  N4  UNL     1      -2.049 -14.166   0.000  0.00  0.00     0.000 N
ENDBRANCH 5 4
ENDBRANCH 9 8
ENDBRANCH 10 9
BRANCH 10 11
ATOM     11  N1  UNL     1       1.299  -5.857   0.000  0.00  0.00     0.000 N
BRANCH 11 12
ATOM     12  S1  UNL     1       2.598  -5.107   0.000  0.00  0.00     0.000 S
ATOM     13  O2  UNL     1       1.848  -3.808   0.000  0.00  0.00     0.000 OA
ATOM     14  O3  UNL     1       3.348  -6.406   0.000  0.00  0.00     0.000 OA
BRANCH 12 15
ATOM     15  C10 UNL     1       3.897  -4.357   0.000  0.00  0.00     0.000 A
ATOM     16  C11 UNL     1       3.897  -2.857   0.000  0.00  0.00     0.000 A
ATOM     17  C12 UNL     1       5.196  -2.107   0.000  0.00  0.00     0.000 A
ATOM     18  C13 UNL     1       6.495  -2.857   0.000  0.00  0.00     0.000 A
ATOM     19  C14 UNL     1       6.495  -4.357   0.000  0.00  0.00     0.000 A
ATOM     20  C15 UNL     1       5.196  -5.107   0.000  0.00  0.00     0.000 A
ENDBRANCH 12 15
ENDBRANCH 11 12
ENDBRANCH 10 11
ENDBRANCH 21 10
TORSDOF 7