
     RDKit          2D

 35 39  0  0  0  0  0  0  0  0999 V2000
    0.3326  -15.3791    0.0000 O   0  0  0  0  0  0  0  0  0  0  0  0
   -0.5490  -14.1656    0.0000 C   0  0  0  0  0  0  0  0  0  0  0  0
   -0.0855  -12.7390    0.0000 C   0  0  0  0  0  0  0  0  0  0  0  0
   -1.2990  -11.8573    0.0000 C   0  0  0  0  0  0  0  0  0  0  0  0
   -1.2990  -10.3573    0.0000 C   0  0  0  0  0  0  0  0  0  0  0  0
    0.0000   -9.6073    0.0000 C   0  0  0  0  0  0  0  0  0  0  0  0
    0.0000   -8.1073    0.0000 C   0  0  0  0  0  0  0  0  0  0  0  0
   -1.2990   -7.3573    0.0000 C   0  0  0  0  0  0  0  0  0  0  0  0
   -1.2990   -5.8573    0.0000 C   0  0  0  0  0  0  0  0  0  0  0  0
    0.0000   -5.1073    0.0000 C   0  0  0  0  0  0  0  0  0  0  0  0
    1.2990   -5.8573    0.0000 N   0  0  0  0  0  0  0  0  0  0  0  0
    2.5981   -5.1073    0.0000 S   0  0  0  0  0  0  0  0  0  0  0  0
    1.8481   -3.8083    0.0000 O   0  0  0  0  0  0  0  0  0  0  0  0
    3.3481   -6.4063    0.0000 O   0  0  0  0  0  0  0  0  0  0  0  0
    3.8971   -4.3573    0.0000 C   0  0  0  0  0  0  0  0  0  0  0  0
    3.8971   -2.8573    0.0000 C   0  0  0  0  0  0  0  0  0  0  0  0
    5.1962   -2.1073    0.0000 C   0  0  0  0  0  0  0  0  0  0  0  0
    6.4952   -2.8573    0.0000 C   0  0  0  0  0  0  0  0  0  0  0  0
    6.4952   -4.3573    0.0000 C   0  0  0  0  0  0  0  0  0  0  0  0
    5.1962   -5.1073    0.0000 C   0  0  0  0  0  0  0  0  0  0  0  0
    0.0000   -3.6073    0.0000 C   0  0  0  0  0  0  0  0  0  0  0  0
    1.2135   -2.7256    0.0000 N   0  0  0  0  0  0  0  0  0  0  0  0
    0.7500   -1.2990    0.0000 C   0  0  0  0  0  0  0  0  0  0  0  0
    1.5000    0.0000    0.0000 C   0  0  0  0  0  0  0  0  0  0  0  0
    0.7500    1.2990    0.0000 C   0  0  0  0  0  0  0  0  0  0  0  0
   -0.7500    1.2990    0.0000 C   0  0  0  0  0  0  0  0  0  0  0  0
   -1.5000    0.0000    0.0000 C   0  0  0  0  0  0  0  0  0  0  0  0
   -0.7500   -1.2990    0.0000 C   0  0  0  0  0  0  0  0  0  0  0  0
   -1.2135   -2.7256    0.0000 N   0  0  0  0  0  0  0  0  0  0  0  0
   -2.5981   -8.1073    0.0000 C   0  0  0  0  0  0  0  0  0  0  0  0
   -2.5981   -9.6073    0.0000 C   0  0  0  0  0  0  0  0  0  0  0  0
   -2.5126  -12.7390    0.0000 S   0  0  0  0  0  0  0  0  0  0  0  0
   -3.8829  -13.3491    0.0000 O   0  0  0  0  0  0  0  0  0  0  0  0
   -3.2626  -11.4399    0.0000 O   0  0  0  0  0  0  0  0  0  0  0  0
   -2.0490  -14.1656    0.0000 N   0  0  0  0  0  0  0  0  0  0  0  0
  1  2  2  0
  2  3  1  0
  3  4  1  0
  4  5  1  0
  5  6  2  0
  6  7  1  0
  7  8  2  0
  8  9  1  0
  9 10  1  0
 10 11  1  0
 11 12  1  0
 12 13  2  0
 12 14  2  0
 12 15  1  0
 15 16  2  0
 16 17  1  0
 17 18  2  0
 18 19  1  0
 19 20  2  0
 10 21  1  0
 21 22  2  0
 22 23  1  0
 23 24  2  0
 24 25  1  0
 25 26  2  0
 26 27  1  0
 27 28  2  0
 28 29  1  0
  8 30  1  0
 30 31  2  0
  4 32  1  0
 32 33  2  0
 32 34  2  0
 32 35  1  0
 35  2  1  0
 31  5  1  0
 20 15  1  0
 29 21  1  0
 28 23  1  0
M  END
